data/casedata/case200.py
# Copyright (c) 1996-2015 PSERC. All rights reserved.
# Use of this source code is governed by a BSD-style
# license that can be found in the LICENSE file.

"""Power flow data for IEEE 118 bus test case.
"""

from numpy import array

def case200():
    """Power flow data for IEEE 118 bus test case.
    Please see L{caseformat} for details on the case file format.

    This data was converted from IEEE Common Data Format
    (ieee118cdf.txt) on 20-Sep-2004 by cdf2matp, rev. 1.11
    See end of file for warnings generated during conversion.

    Converted from IEEE CDF file from:
    U{http://www.ee.washington.edu/research/pstca/}

    With baseKV data take from the PSAP format file from the same site,
    added manually on 10-Mar-2006.

    08/25/93 UW ARCHIVE           100.0  1961 W IEEE 118 Bus Test Case

    @return: Power flow data for IEEE 118 bus test case.
    """
    ppc = {"version": '2'}

    ##-----  Power Flow Data  -----##
    ## system MVA base
    ppc["baseMVA"] = 100.0

    ## bus data
    # bus_i type Pd Qd Gs Bs area Vm Va baseKV zone Vmax Vmin
    ppc["bus"] = array([
        [1,	1,	0,	0,	0,	0,	1,	1.0191524,	-7.085196,	115,	2,	1.1,	0.9,     0 ,      0     ],
	[2,	1,	7.39,	2.1,	0,	0,	1,	1.0190346,	-7.098018,	115,	2,	1.1,	0.9,     0 ,      0.01  ],
	[3,	1,	0,	0,	0,	0,	1,	1.0300537,	-10.029102,	115,	4,	1.1,	0.9,     0 ,      0     ],
	[4,	1,	1.7,	0.48,	0,	0,	1,	1.0300287,	-10.031977,	115,	4,	1.1,	0.9,     0 ,      0.01  ],
	[5,	1,	0,	0,	0,	0,	1,	1.0372733,	-3.546274,	115,	6,	1.1,	0.9,     0 ,      0     ],
	[6,	1,	7.95,	2.26,	0,	0,	1,	1.0371472,	-3.559563,	115,	6,	1.1,	0.9,     0 ,      0.01  ],
	[7,	1,	0,	0,	0,	0,	1,	1.0130981,	-7.793195,	115,	2,	1.1,	0.9,     0 ,      0     ],
	[8,	1,	23.74,	6.77,	0,	0,	1,	1.0127362,	-7.833073,	115,	2,	1.1,	0.9,     0 ,      0.01  ],
	[9,	1,	0,	0,	0,	0,	1,	1.0157742,	-7.471766,	115,	2,	1.1,	0.9,     0 ,      0     ],
	[10,	1,	42.68,	12.16,	0,	0,	1,	1.0150515,	-7.561889,	115,	2,	1.1,	0.9,     0 ,      0.01  ],
	[11,	1,	0,	0,	0,	0,	1,	1.0464424,	-7.604683,	115,	4,	1.1,	0.9,     0 ,      0     ],
	[12,	1,	0.3,	0.09,	0,	0,	1,	1.046438,	-7.60522,	115,	4,	1.1,	0.9,     0 ,      0.01  ],
	[13,	1,	2.52,	0.72,	0,	0,	1,	1.0464027,	-7.609214,	115,	4,	1.1,	0.9,     0 ,      0.01  ],
	[14,	1,	0,	0,	0,	0,	1,	1.044617,	-6.245575,	230,	4,	1.1,	0.9,     0 ,      0     ],
	[15,	1,	0,	0,	0,	30,	1,	1.0491072,	-7.105388,	115,	4,	1.1,	0.9,     0 ,      0     ],
	[16,	1,	44.76,	12.76,	0,	0,	1,	1.048481,	-7.176325,	115,	4,	1.1,	0.9,     0 ,      0.01  ],
	[17,	1,	0,	0,	0,	0,	1,	1.0247944,	-8.305174,	115,	4,	1.1,	0.9,     0 ,      0     ],
	[18,	1,	0.71,	0.2,	0,	0,	1,	1.0247831,	-8.306647,	115,	4,	1.1,	0.9,     0 ,      0.01  ],
	[19,	1,	0.77,	0.22,	0,	0,	1,	1.0247839,	-8.306404,	115,	4,	1.1,	0.9,     0 ,      0.01  ],
	[20,	1,	1.13,	0.32,	0,	0,	1,	1.024777,	-8.307127,	115,	4,	1.1,	0.9,     0 ,      0.01  ],
	[21,	1,	4.61,	1.31,	0,	0,	1,	1.024716,	-8.31463,	115,	4,	1.1,	0.9,     0 ,      0.01  ],
	[22,	1,	0,	0,	0,	0,	1,	1.0446532,	-8.021549,	115,	4,	1.1,	0.9,     0 ,      0     ],
	[23,	1,	1.41,	0.4,	0,	0,	1,	1.0446325,	-8.023805,	115,	4,	1.1,	0.9,     0 ,      0.01  ],
	[24,	1,	2.4,	0.68,	0,	0,	1,	1.0446174,	-8.025162,	115,	4,	1.1,	0.9,     0 ,      0.01  ],
	[25,	1,	0,	0,	0,	0,	1,	1.0425139,	-4.003351,	115,	6,	1.1,	0.9,     0 ,      0     ],
	[26,	1,	1.35,	0.39,	0,	0,	1,	1.0424947,	-4.005417,	115,	6,	1.1,	0.9,     0 ,      0.01  ],
	[27,	1,	0,	0,	0,	0,	1,	1.0457273,	-7.975065,	115,	4,	1.1,	0.9,     0 ,      0     ],
	[28,	1,	2.33,	0.67,	0,	0,	1,	1.045689,	-7.979706,	115,	4,	1.1,	0.9,     0 ,      0.01  ],
	[29,	1,	0,	0,	0,	0,	1,	1.0181686,	-7.054086,	115,	2,	1.1,	0.9,     0 ,      0     ],
	[30,	1,	59.09,	16.84,	0,	0,	1,	1.0172458,	-7.149969,	115,	2,	1.1,	0.9,     0 ,      0.01  ],
	[31,	1,	0,	0,	0,	0,	1,	1.0215416,	-5.832082,	115,	7,	1.1,	0.9,     0 ,      0     ],
	[32,	1,	0.51,	0.15,	0,	0,	1,	1.0215327,	-5.833121,	115,	7,	1.1,	0.9,     0 ,      0.01  ],
	[33,	1,	6.44,	1.84,	0,	0,	1,	1.0214429,	-5.844415,	115,	7,	1.1,	0.9,     0 ,      0.01  ],
	[34,	1,	0,	0,	0,	0,	1,	1.0327185,	-9.326455,	115,	4,	1.1,	0.9,     0 ,      0     ],
	[35,	1,	20.76,	5.92,	0,	0,	1,	1.032392,	-9.365615,	115,	4,	1.1,	0.9,     0 ,      0.01  ],
	[36,	1,	0,	0,	0,	0,	1,	1.0280697,	-6.178381,	115,	7,	1.1,	0.9,     0 ,      0     ],
	[37,	1,	3.57,	1.02,	0,	0,	1,	1.0280176,	-6.18452,	115,	7,	1.1,	0.9,     0 ,      0.01  ],
	[38,	1,	29.81,	8.5,	0,	0,	1,	1.0275847,	-6.23205,	115,	7,	1.1,	0.9,     0 ,      0.01  ],
	[39,	1,	7.41,	2.11,	0,	0,	1,	1.024585,	-10.493094,	115,	4,	1.1,	0.9,     0 ,      0.01  ],
	[40,	1,	2.04,	0.58,	0,	0,	1,	1.0245573,	-10.496396,	115,	4,	1.1,	0.9,     0 ,      0.01  ],
	[41,	1,	38.34,	10.93,	0,	0,	1,	1.0462799,	-7.96017,	115,	5,	1.1,	0.9,     0 ,      0.01  ],
	[42,	1,	10.62,	3.03,	0,	0,	1,	1.0301465,	-11.069993,	115,	4,	1.1,	0.9,     0 ,      0.01  ],
	[43,	1,	2.09,	0.59,	0,	0,	1,	1.017201,	-6.400585,	115,	2,	1.1,	0.9,     0 ,      0.01  ],
	[44,	1,	4.15,	1.18,	0,	0,	1,	1.0280137,	-10.39886,	115,	4,	1.1,	0.9,     0 ,      0.01  ],
	[45,	1,	0,	0,	0,	0,	1,	1.0384367,	-2.068677,	230,	7,	1.1,	0.9,     0 ,      0     ],
	[46,	1,	6.34,	1.81,	0,	0,	1,	1.0378124,	-2.889424,	115,	7,	1.1,	0.9,     0 ,      0.01  ],
	[47,	1,	1.54,	0.44,	0,	0,	1,	1.0392618,	-8.19532,	115,	4,	1.1,	0.9,     0 ,      0.01  ],
	[48,	1,	1.82,	0.52,	0,	0,	1,	1.0351468,	-4.17501,	115,	6,	1.1,	0.9,     0 ,      0.01  ],
	[49,	2,	0,	0,	0,	0,	1,	1.04,	        -3.80269,	13.8,	6,	1.1,	0.9,     0.01 ,   0.01  ],
	[50,	2,	0,	0,	0,	0,	1,	1.04,	        -3.896095,	13.8,	6,	1.1,	0.9,     0.01 ,   0.01  ],
	[51,	2,	0,	0,	0,	0,	1,	1.04,	        -3.742621,	13.8,	6,	1.1,	0.9,     0.01 ,   0.01  ],
	[52,	2,	0,	0,	0,	0,	1,	1.04,	        -3.914588,	13.8,	6,	1.1,	0.9,     0.01 ,   0.01  ],
	[53,	2,	0,	0,	0,	0,	1,	1.04,	        -3.349326,	13.8,	6,	1.1,	0.9,     0.01 ,   0.01  ],
	[54,	1,	2.66,	0.76,	0,	0,	1,	1.0375005,	-8.493516,	115,	4,	1.1,	0.9,     0 ,      0.01  ],
	[55,	1,	0,	0,	0,	0,	1,	1.0370718,	-2.298751,	230,	7,	1.1,	0.9,     0 ,      0     ],
	[56,	1,	1.31,	0.37,	0,	0,	1,	1.0364415,	-2.736582,	115,	7,	1.1,	0.9,     0 ,      0.01  ],
	[57,	1,	2.82,	0.8,	0,	0,	1,	1.0281336,	-10.449132,	115,	4,	1.1,	0.9,     0 ,      0.01  ],
	[58,	1,	4.23,	1.21,	0,	0,	1,	1.0349414,	-6.030088,	115,	7,	1.1,	0.9,     0 ,      0.01  ],
	[59,	1,	4.73,	1.35,	0,	0,	1,	1.0187885,	-7.693149,	115,	2,	1.1,	0.9,     0 ,      0.01  ],
	[60,	1,	3.8,	1.08,	0,	0,	1,	1.0291097,	-6.554687,	115,	2,	1.1,	0.9,     0 ,      0.01  ],
	[61,	1,	20.55,	5.86,	0,	0,	1,	1.0351527,	-3.102719,	115,	7,	1.1,	0.9,     0 ,      0.01  ],
	[62,	1,	21.41,	6.1,	0,	0,	1,	1.0267194,	-11.318015,	115,	4,	1.1,	0.9,     0 ,      0.01  ],
	[63,	1,	7.98,	2.27,	0,	0,	1,	1.0437777,	-8.233032,	115,	4,	1.1,	0.9,     0 ,      0.01  ],
	[64,	1,	0,	0,	0,	0,	1,	1.0415417,	-2.532761,	115,	6,	1.1,	0.9,     0 ,      0     ],
	[65,	2,	0,	0,	0,	0,	1,	1.04,	        2.119,	        13.8,	6,	1.1,	0.9,     0.01 ,   0.01  ],
	[66,	1,	0,	0,	0,	0,	1,	1.0410702,	-7.846441,	115,	4,	1.1,	0.9,     0 ,      0     ],
	[67,	2,	0,	0,	0,	0,	1,	1.0405589,	-7.73215,	13.8,	4,	1.1,	0.9,     0.01 ,   0.01  ],
	[68,	2,	0,	0,	0,	0,	1,	1.04,	        -6.669196,	13.8,	4,	1.1,	0.9,     0.01 ,   0.01  ],
	[69,	2,	0,	0,	0,	0,	1,	1.04,	        -7.421629,	13.8,	4,	1.1,	0.9,     0.01 ,   0.01  ],
	[70,	2,	0,	0,	0,	0,	1,	1.04,	        -6.959081,	13.8,	4,	1.1,	0.9,     0.01 ,   0.01  ],
	[71,	2,	0,	0,	0,	0,	1,	1.04,	        -7.48165,	13.8,	4,	1.1,	0.9,     0.01 ,   0.01  ],
	[72,	2,	0,	0,	0,	0,	1,	1.04,	        -7.512144,	13.8,	4,	1.1,	0.9,     0.01 ,   0.01  ],
	[73,	2,	0,	0,	0,	0,	1,	1.04,	        -7.193069,	13.8,	4,	1.1,	0.9,     0.01 ,   0.01  ],
	[74,	1,	18.76,	5.35,	0,	0,	1,	1.0294816,	-5.12964,	115,	6,	1.1,	0.9,     0 ,      0.01  ],
	[75,	1,	3.6,	1.03,	0,	0,	1,	1.028977,	-6.116296,	115,	2,	1.1,	0.9,     0 ,      0.01  ],
	[76,	2,	0,	0,	0,	0,	1,	1.04,	        -5.641354,	13.8,	2,	1.1,	0.9,     0.01 ,   0.01  ],
	[77,	2,	0,	0,	0,	0,	1,	1.04,	        -5.292751,	13.8,	2,	1.1,	0.9,     0.01 ,   0.01  ],
	[78,	2,	0,	0,	0,	0,	1,	1.028977,	-6.116296,	13.8,	2,	1.1,	0.9,     0.01 ,   0.01  ],
	[79,	2,	0,	0,	0,	0,	1,	1.028977,	-6.116296,	13.8,	2,	1.1,	0.9,     0.01 ,   0.01  ],
	[80,	1,	1.48,	0.42,	0,	0,	1,	1.0475622,	-7.25821,	115,	5,	1.1,	0.9,     0 ,      0.01  ],
	[81,	1,	0,	0,	0,	0,	1,	1.038152,	-3.896426,	230,	6,	1.1,	0.9,     0 ,      0     ],
	[82,	1,	7.6,	2.17,	0,	0,	1,	1.0353106,	-4.72467,	115,	6,	1.1,	0.9,     0 ,      0.01  ],
	[83,	1,	3.14,	0.89,	0,	0,	1,	1.0305903,	-5.147124,	115,	7,	1.1,	0.9,     0 ,      0.01  ],
	[84,	1,	3.75,	1.07,	0,	0,	1,	1.0192369,	-5.836735,	115,	2,	1.1,	0.9,     0 ,      0.01  ],
	[85,	1,	4.83,	1.38,	0,	0,	1,	1.0241032,	-9.891841,	115,	4,	1.1,	0.9,     0 ,      0.01  ],
	[86,	1,	8.25,	2.35,	0,	0,	1,	1.0142895,	-7.633369,	115,	2,	1.1,	0.9,     0 ,      0.01  ],
	[87,	1,	0,	0,	0,	0,	1,	1.0382378,	-9.281203,	230,	3,	1.1,	0.9,     0 ,      0     ],
	[88,	1,	49.34,	14.06,	0,	0,	1,	1.0367741,	-10.475486,	115,	3,	1.1,	0.9,     0 ,      0.01  ],
	[89,	1,	62.85,	17.91,	0,	0,	1,	1.0367956,	-6.001781,	115,	7,	1.1,	0.9,     0 ,      0.01  ],
	[90,	2,	0,	0,	0,	0,	1,	1.04,	        -4.84285,	13.8,	7,	1.1,	0.9,     0.01 ,   0.01  ],
	[91,	2,	0,	0,	0,	0,	1,	1.04,	        -5.608287,	13.8,	7,	1.1,	0.9,     0.01 ,   0.01  ],
	[92,	2,	0,	0,	0,	0,	1,	1.0367956,	-6.001781,	13.8,	7,	1.1,	0.9,     0.01 ,   0.01  ],
	[93,	1,	3.06,	0.87,	0,	0,	1,	1.0467635,	-7.705981,	115,	4,	1.1,	0.9,     0 ,      0.01  ],
	[94,	2,	0,	0,	0,	0,	1,	1.0412845,	-6.897097,	13.8,	4,	1.1,	0.9,     0.01 ,   0.01  ],
	[95,	1,	3,	0.85,	0,	30,	1,	1.0452705,	-6.143695,	115,	7,	1.1,	0.9,     0 ,      0.01  ],
	[96,	1,	2.96,	0.84,	0,	0,	1,	1.0399843,	-4.622369,	115,	7,	1.1,	0.9,     0 ,      0.01  ],
	[97,	1,	7.33,	2.09,	0,	0,	1,	1.0266279,	-8.070874,	115,	2,	1.1,	0.9,     0 ,      0.01  ],
	[98,	1,	0,	0,	0,	0,	1,	1.0259732,	-5.693301,	230,	2,	1.1,	0.9,     0 ,      0     ],
	[99,	1,	12.17,	3.47,	0,	0,	1,	1.021759,	-6.532648,	115,	2,	1.1,	0.9,     0 ,      0.01  ],
	[100,	1,	37.39,	10.66,	0,	80,	1,	1.05559,        -7.845164,	115,	5,	1.1,	0.9,     0 ,      0.01  ],
	[101,	1,	0.52,	0.15,	0,	0,	1,	1.0153419,	-7.486883,	115,	2,	1.1,	0.9,     0 ,      0.01  ],
	[102,	1,	0,	0,	0,	0,	1,	1.0375884,	-1.855349,	230,	7,	1.1,	0.9,     0 ,      0     ],
	[103,	1,	0,	0,	0,	0,	1,	1.0361908,	-2.820525,	115,	7,	1.1,	0.9,     0 ,      0     ],
	[104,	2,	0,	0,	0,	0,	1,	1.04,	        1.292356,	13.8,	7,	1.1,	0.9,     0.01 ,   0.01  ],
	[105,	2,	0,	0,	0,	0,	1,	1.04,	        3.030149,	13.8,	7,	1.1,	0.9,     0.01 ,   0.01  ],
	[106,	1,	2.06,	0.59,	0,	0,	1,	1.0333053,	-3.587524,	115,	7,	1.1,	0.9,     0 ,      0.01  ],
	[107,	1,	52.56,	14.98,	0,	0,	1,	1.0164253,	-5.897801,	115,	7,	1.1,	0.9,     0 ,      0.01  ],
	[108,	1,	9.42,	2.68,	0,	0,	1,	1.02631,        -6.590908,	115,	2,	1.1,	0.9,     0 ,      0.01  ],
	[109,	1,	5.16,	1.47,	0,	0,	1,	1.0266885,	-7.119037,	115,	4,	1.1,	0.9,     0 ,      0.01  ],
	[110,	1,	10.86,	3.09,	0,	0,	1,	1.0153998,	-7.494693,	115,	2,	1.1,	0.9,     0 ,      0.01  ],
	[111,	1,	8.82,	2.51,	0,	0,	1,	1.0422996,	-8.069078,	115,	5,	1.1,	0.9,     0 ,      0.01  ],
	[112,	1,	0,	0,	0,	0,	1,	1.0338868,	-2.38601,	230,	7,	1.1,	0.9,     0 ,      0     ],
	[113,	1,	0,	0,	0,	0,	1,	1.0214787,	-5.246294,	115,	7,	1.1,	0.9,     0 ,      0     ],
	[114,	2,	0,	0,	0,	0,	1,	1.0362036,	-2.072597,	13.8,	7,	1.1,	0.9,     0.01 ,   0.01  ],
	[115,	2,	0,	0,	0,	0,	1,	1.04,	        2.075284,	13.8,	7,	1.1,	0.9,     0.01 ,   0.01  ],
	[116,	1,	0,	0,	0,	0,	1,	1.0260581,	-5.40757,	230,	2,	1.1,	0.9,     0 ,      0     ],
	[117,	1,	34.08,	9.71,	0,	0,	1,	1.0194057,	-6.761358,	115,	2,	1.1,	0.9,     0 ,      0.01  ],
	[118,	1,	3.94,	1.12,	0,	0,	1,	1.0220863,	-6.761277,	115,	2,	1.1,	0.9,     0 ,      0.01  ],
	[119,	1,	17.55,	5,	0,	0,	1,	1.0162966,	-7.890283,	115,	2,	1.1,	0.9,     0 ,      0.01  ],
	[120,	1,	1.8,	0.51,	0,	0,	1,	1.0244523,	-9.26074,	115,	4,	1.1,	0.9,     0 ,      0.01  ],
	[121,	1,	0,	0,	0,	0,	1,	1.0413751,	-2.550667,	230,	7,	1.1,	0.9,     0 ,      0     ],
	[122,	1,	15.44,	4.4,	0,	0,	1,	1.0392113,	-3.476706,	115,	7,	1.1,	0.9,     0 ,      0.01  ],
	[123,	1,	0,	0,	0,	0,	1,	1.0317706,	-4.799729,	230,	2,	1.1,	0.9,     0 ,      0     ],
	[124,	1,	0,	0,	0,	0,	1,	1.0241995,	-6.311793,	115,	2,	1.1,	0.9,     0 ,      0     ],
	[125,	2,	0,	0,	0,	0,	1,	1.04,	        -2.638002,	13.8,	2,	1.1,	0.9,     0.01 ,   0.01  ],
	[126,	2,	0,	0,	0,	0,	1,	1.04,	        -3.433514,	13.8,	2,	1.1,	0.9,     0.01 ,   0.01  ],
	[127,	2,	0,	0,	0,	0,	1,	1.04,	        -4.153305,	13.8,	2,	1.1,	0.9,     0.01 ,   0.01  ],
	[128,	1,	0,	0,	0,	0,	1,	1.0336624,	-2.641873,	230,	7,	1.1,	0.9,     0 ,      0     ],
	[129,	1,	77.24,	22.01,	0,	0,	1,	1.0199071,	-5.280933,	115,	7,	1.1,	0.9,     0 ,      0.01  ],
	[130,	1,	4.4,	1.25,	0,	0,	1,	1.0308537,	-4.215383,	115,	7,	1.1,	0.9,     0 ,      0.01  ],
	[131,	1,	30.25,	8.62,	0,	0,	1,	1.0159516,	-7.483658,	115,	2,	1.1,	0.9,     0 ,      0.01  ],
	[132,	1,	26.96,	7.68,	0,	0,	1,	1.0142019,	-7.143976,	115,	2,	1.1,	0.9,     0 ,      0.01  ],
	[133,	1,	0,	0,	0,	0,	1,	1.033428,	-4.376173,	230,	2,	1.1,	0.9,     0 ,      0     ],
	[134,	1,	0,	0,	0,	0,	1,	1.0315652,	-5.231244,	115,	2,	1.1,	0.9,     0 ,      0     ],
	[135,	2,	0,	0,	0,	0,	1,	1.04,	        -1.987898,	13.8,	2,	1.1,	0.9,     0.01 ,   0.01  ],
	[136,	2,	0,	0,	0,	0,	1,	1.04,	        -2.419807,	13.8,	2,	1.1,	0.9,     0.01 ,   0.01  ],
	[137,	1,	1.16,	0.33,	0,	0,	1,	1.0313258,	-9.719095,	115,	4,	1.1,	0.9,     0 ,      0.01  ],
	[138,	1,	2.09,	0.6,	0,	0,	1,	1.0307923,	-5.699318,	115,	6,	1.1,	0.9,     0 ,      0.01  ],
	[139,	1,	6.84,	1.95,	0,	0,	1,	1.0214166,	-7.361468,	115,	2,	1.1,	0.9,     0 ,      0.01  ],
	[140,	1,	8.21,	2.34,	0,	0,	1,	1.0231103,	-6.390899,	115,	2,	1.1,	0.9,     0 ,      0.01  ],
	[141,	1,	1.42,	0.41,	0,	0,	1,	1.0153587,	-7.521902,	115,	2,	1.1,	0.9,     0 ,      0.01  ],
	[142,	1,	37.26,	10.62,	0,	0,	1,	1.0140717,	-7.617783,	115,	2,	1.1,	0.9,     0 ,      0.01  ],
	[143,	1,	26.78,	7.63,	0,	0,	1,	1.0372589,	-6.549447,	115,	5,	1.1,	0.9,     0 ,      0.01  ],
	[144,	1,	9.05,	2.58,	0,	0,	1,	1.0236389,	-5.928282,	115,	2,	1.1,	0.9,     0 ,      0.01  ],
	[145,	1,	17.54,	5,	0,	0,	1,	1.0320168,	-11.164121,	115,	3,	1.1,	0.9,     0 ,      0.01  ],
	[146,	1,	0,	0,	0,	0,	1,	1.0331184,	-4.010275,	115,	7,	1.1,	0.9,     0 ,      0     ],
	[147,	2,	0,	0,	0,	0,	1,	1.04,	        1.000906,	13.8,	7,	1.1,	0.9,     0.01 ,   0.01  ],
	[148,	1,	32.02,	9.13,	0,	0,	1,	1.0102299,	-8.189318,	115,	2,	1.1,	0.9,     0 ,      0.01  ],
	[149,	1,	0,	0,	0,	0,	1,	1.0395559,	-8.879345,	230,	3,	1.1,	0.9,     0 ,      0     ],
	[150,	1,	0,	0,	0,	0,	1,	1.039664,	-9.999925,	115,	3,	1.1,	0.9,     0 ,      0     ],
	[151,	2,	0,	0,	0,	0,	1,	1.04,	        -8.34258,	13.8,	3,	1.1,	0.9,     0.01 ,   0.01  ],
	[152,	2,	0,	0,	0,	0,	1,	1.04,	        -7.139644,	13.8,	3,	1.1,	0.9,     0.01 ,   0.01  ],
	[153,	2,	0,	0,	0,	0,	1,	1.04,	        -6.612046,	13.8,	3,	1.1,	0.9,     0.01 ,   0.01  ],
	[154,	2,	0,	0,	0,	0,	1,	1.04,	        -7.61542,	13.8,	3,	1.1,	0.9,     0.01 ,   0.01  ],
	[155,	2,	0,	0,	0,	0,	1,	1.04,	        -7.653539,	13.8,	3,	1.1,	0.9,     0.01 ,   0.01  ],
	[156,	1,	0,	0,	0,	0,	1,	1.0321033,	-4.724707,	230,	2,	1.1,	0.9,     0 ,      0     ],
	[157,	1,	14.76,	4.21,	0,	0,	1,	1.0305206,	-5.439245,	115,	2,	1.1,	0.9,     0 ,      0.01  ],
	[158,	1,	8.97,	2.56,	0,	0,	1,	1.0434577,	-7.900145,	115,	4,	1.1,	0.9,     0 ,      0.01  ],
	[159,	1,	1.39,	0.4,	0,	0,	1,	1.0265896,	-10.742416,	115,	4,	1.1,	0.9,     0 ,      0.01  ],
	[160,	1,	0,	0,	0,	0,	1,	1.0311472,	-11.239582,	115,	4,	1.1,	0.9,     0 ,      0     ],
	[161,	2,	0,	0,	0,	0,	1,	1.0311472,	-11.239582,	13.8,	4,	1.1,	0.9,     0.01 ,   0.01  ],
	[162,	1,	1.45,	0.41,	0,	0,	1,	1.0225791,	-6.221058,	115,	2,	1.1,	0.9,     0 ,      0.01  ],
	[163,	1,	45.8,	13.05,	0,	0,	1,	1.0431643,	-7.926244,	115,	5,	1.1,	0.9,     0 ,      0.01  ],
	[164,	2,	0,	0,	0,	0,	1,	1.0431643,	-7.926244,	13.8,	5,	1.1,	0.9,     0.01 ,   0.01  ],
	[165,	2,	0,	0,	0,	0,	1,	1.0431643,	-7.926244,	13.8,	5,	1.1,	0.9,     0.01 ,   0.01  ],
	[166,	2,	0,	0,	0,	0,	1,	1.0431643,	-7.926244,	13.8,	5,	1.1,	0.9,     0.01 ,   0.01  ],
	[167,	2,	0,	0,	0,	0,	1,	1.0414716,	-7.628263,	13.8,	5,	1.1,	0.9,     0.01 ,   0.01  ],
	[168,	2,	0,	0,	0,	0,	1,	1.0431643,	-7.926244,	13.8,	5,	1.1,	0.9,     0.01 ,   0.01  ],
	[169,	2,	0,	0,	0,	0,	1,	1.0431643,	-7.926244,	13.8,	5,	1.1,	0.9,     0.01 ,   0.01  ],
	[170,	2,	0,	0,	0,	0,	1,	1.04,	        -7.359358,	13.8,	5,	1.1,	0.9,     0.01 ,   0.01  ],
	[171,	1,	7.94,	2.26,	0,	0,	1,	1.0293606,	-5.544471,	115,	6,	1.1,	0.9,     0 ,      0.01  ],
	[172,	1,	5.38,	1.53,	0,	0,	1,	1.0446624,	-6.737828,	115,	5,	1.1,	0.9,     0 ,      0.01  ],
	[173,	1,	8.71,	2.48,	0,	0,	1,	1.0438694,	-7.824896,	115,	5,	1.1,	0.9,     0 ,      0.01  ],
	[174,	1,	2.77,	0.79,	0,	0,	1,	1.048556,	-6.975714,	115,	5,	1.1,	0.9,     0 ,      0.01  ],
	[175,	1,	7.31,	2.08,	0,	0,	1,	1.042508,	-8.051141,	115,	5,	1.1,	0.9,     0 ,      0.01  ],
	[176,	1,	19.01,	5.42,	0,	0,	1,	1.034057,	-10.848998,	115,	3,	1.1,	0.9,     0 ,      0.01  ],
	[177,	1,	11.29,	3.22,	0,	0,	1,	1.0279083,	-5.445402,	115,	7,	1.1,	0.9,     0 ,      0.01  ],
	[178,	1,	0,	0,	0,	0,	1,	1.0414926,	-4.889523,	230,	5,	1.1,	0.9,     0 ,      0     ],
	[179,	1,	23.61,	6.73,	0,	0,	1,	1.0462277,	-6.907941,	115,	5,	1.1,	0.9,     0 ,      0.01  ],
	[180,	1,	7.74,	2.21,	0,	0,	1,	1.045211,	-7.124937,	115,	5,	1.1,	0.9,     0 ,      0.01  ],
	[181,	1,	47.98,	13.67,	0,	0,	1,	1.0333892,	-11.195233,	115,	4,	1.1,	0.9,     0 ,      0.01  ],
	[182,	2,	0,	0,	0,	0,	1,	1.04,	        -10.37446,	13.8,	4,	1.1,	0.9,     0.01 ,   0.01  ],
	[183,	2,	0,	0,	0,	0,	1,	1.04,	        -10.723282,	13.8,	4,	1.1,	0.9,     0.01 ,   0.01  ],
	[184,	1,	10.69,	3.05,	0,	0,	1,	1.0492205,	-8.289414,	115,	5,	1.1,	0.9,     0 ,      0.01  ],
	[185,	1,	10.79,	3.07,	0,	0,	1,	1.0341291,	-10.871111,	115,	3,	1.1,	0.9,     0 ,      0.01  ],
	[186,	1,	2.1,	0.6,	0,	0,	1,	1.0294683,	-5.915141,	115,	2,	1.1,	0.9,     0 ,      0.01  ],
	[187,	1,	0,	0,	0,	0,	1,	1.0411088,	-1.59351,	230,	7,	1.1,	0.9,     0 ,      0     ],
	[188,	1,	0,	0,	0,	0,	1,	1.0422271,	-4.274235,	115,	7,	1.1,	0.9,     0 ,      0     ],
	[189,	3,	0,	0,	0,	0,	1,	1.04,	        0,	        13.8,	7,	1.1,	0.9,     0.01 ,   0.01  ],
	[190,	1,	16.79,	4.78,	0,	0,	1,	1.0275107,	-5.607695,	115,	6,	1.1,	0.9,     0 ,      0.01  ],
	[191,	1,	7.23,	2.06,	0,	0,	1,	1.0460774,	-7.762654,	115,	5,	1.1,	0.9,     0 ,      0.01  ],
	[192,	1,	52.74,	15.03,	0,	0,	1,	1.0166276,	-5.99268,	115,	7,	1.1,	0.9,     0 ,      0.01  ],
	[193,	1,	21.99,	6.27,	0,	0,	1,	1.0164747,	-7.379588,	115,	2,	1.1,	0.9,     0 ,      0.01  ],
	[194,	1,	37.57,	10.71,	0,	50,	1,	1.0400826,	-10.703489,	115,	3,	1.1,	0.9,     0 ,      0.01  ],
	[195,	1,	0,	0,	0,	0,	1,	1.0332601,	-5.127426,	115,	6,	1.1,	0.9,     0 ,      0     ],
	[196,	2,	0,	0,	0,	0,	1,	1.0332601,	-5.127426,	13.8,	6,	1.1,	0.9,     0.01 ,   0.01  ],
	[197,	2,	0,	0,	0,	0,	1,	1.0332601,	-5.127426,	13.8,	6,	1.1,	0.9,     0.01 ,   0.01  ],
	[198,	1,	5.37,	1.53,	0,	0,	1,	1.0232234,	-6.849765,	115,	2,	1.1,	0.9,     0 ,      0.01  ],
	[199,	1,	4.26,	1.21,	0,	0,	1,	1.0438791,	-5.721465,	115,	6,	1.1,	0.9,     0 ,      0.01  ],
	[200,	1,	9.34,	2.66,	0,	0,	1,	1.0259148,	-9.367606,	115,	4,	1.1,	0.9,     0 ,      0.01  ]
    ])

    ## generator data
    # bus, Pg, Qg, Qmax, Qmin, Vg, mBase, status, Pmax, Pmin, Pc1, Pc2,
    # Qc1min, Qc1max, Qc2min, Qc2max, ramp_agc, ramp_10, ramp_30, ramp_q, apf
    ppc["gen"] = array([
        [49,	1.36,	0.88,	2.11,	-0.55,	1.04,	5.44,	1,	4.53,	1.36,	0,	0,	0,	0,	0,	0,	0,	0,	0,	0,	0],
        [50,	1.36,	1.18,	2.11,	-0.55,	1.04,	5.44,	1,	4.53,	1.36,	0,	0,	0,	0,	0,	0,	0,	0,	0,	0,	0],
        [51,	1.36,	0.77,	2.11,	-0.55,	1.04,	5.44,	1,	4.53,	1.36,	0,	0,	0,	0,	0,	0,	0,	0,	0,	0,	0],
        [52,	1.36,	1.25,	2.11,	-0.55,	1.04,	5.44,	1,	4.53,	1.36,	0,	0,	0,	0,	0,	0,	0,	0,	0,	0,	0],
        [53,	2.72,	0.79,	4.23,	-1.11,	1.04,	10.88,	1,	9.07,	2.72,	0,	0,	0,	0,	0,	0,	0,	0,	0,	0,	0],
        [65,	86.5,	0.84,	32.04,	-21.66,	1.04,	180.48,	1,	86.5,	86.5,	0,	0,	0,	0,	0,	0,	0,	0,	0,	0,	0],
        [67,	1.41,	-0.57,	2.19,	-0.57,	1.04,	5.64,	1,	4.7,	1.41,	0,	0,	0,	0,	0,	0,	0,	0,	0,	0,	0],
        [68,	8.38,	-0.55,	13.01,	-3.41,	1.04,	33.5,	1,	27.92,	8.38,	0,	0,	0,	0,	0,	0,	0,	0,	0,	0,	0],
        [69,	8.38,	-1.53,	13.01,	-3.41,	1.04,	33.5,	1,	27.92,	8.38,	0,	0,	0,	0,	0,	0,	0,	0,	0,	0,	0],
        [70,	8.38,	-0.78,	13.01,	-3.41,	1.04,	33.5,	1,	27.92,	8.38,	0,	0,	0,	0,	0,	0,	0,	0,	0,	0,	0],
        [71,	8.38,	-1.7,	13.01,	-3.41,	1.04,	33.5,	1,	27.92,	8.38,	0,	0,	0,	0,	0,	0,	0,	0,	0,	0,	0],
        [72,	8.38,	-1.86,	13.01,	-3.41,	1.04,	33.5,	1,	27.92,	8.38,	0,	0,	0,	0,	0,	0,	0,	0,	0,	0,	0],
        [73,	8.38,	-1.11,	13.01,	-3.41,	1.04,	33.5,	1,	27.92,	8.38,	0,	0,	0,	0,	0,	0,	0,	0,	0,	0,	0],
        [76,	1.2,	1.41,	2.04,	-0.44,	1.04,	4.8,	1,	4,	1.2,	0,	0,	0,	0,	0,	0,	0,	0,	0,	0,	0],
        [77,	0.72,	0.5,	1.22,	-0.27,	1.04,	2.88,	1,	2.4,	0.72,	0,	0,	0,	0,	0,	0,	0,	0,	0,	0,	0],
        [78,	0,	0,	9.16,	-2,	1.04,	21.6,	0,	18,	5.4,	0,	0,	0,	0,	0,	0,	0,	0,	0,	0,	0],
        [79,	0,	0,	9.16,	-2,	1.04,	21.6,	0,	18,	5.4,	0,	0,	0,	0,	0,	0,	0,	0,	0,	0,	0],
        [90,	0.96,	0.13,	1.63,	-0.36,	1.04,	3.84,	1,	3.2,	0.96,	0,	0,	0,	0,	0,	0,	0,	0,	0,	0,	0],
        [91,	1.5,	0.59,	2.55,	-0.55,	1.04,	6,	1,	5,	1.5,	0,	0,	0,	0,	0,	0,	0,	0,	0,	0,	0],
        [92,	0,	0,	3.21,	-0.7,	1.04,	7.56,	0,	6.3,	1.89,	0,	0,	0,	0,	0,	0,	0,	0,	0,	0,	0],
        [94,	5.4,	-2.2,	8.39,	-2.2,	1.04,	21.6,	1,	18,	5.4,	0,	0,	0,	0,	0,	0,	0,	0,	0,	0,	0],
        [104,	67.6,	3.1,	21.09,	-14.26,	1.04,	118.8,	1,	67.6,	67.6,	0,	0,	0,	0,	0,	0,	0,	0,	0,	0,	0],
        [105,	154.8,	8.29,	42.17,	-28.51,	1.04,	237.6,	1,	154.8,	154.8,	0,	0,	0,	0,	0,	0,	0,	0,	0,	0,	0],
        [114,	1.4,	0.36,	0.36,	-0.24,	1.04,	2.04,	1,	1.4,	1.4,	0,	0,	0,	0,	0,	0,	0,	0,	0,	0,	0],
        [115,	133.5,	12.6,	31.95,	-21.6,	1.04,	180,	1,	133.5,	133.5,	0,	0,	0,	0,	0,	0,	0,	0,	0,	0,	0],
        [125,	39.02,	7.24,	60.6,	-15.87,	1.04,	156.06,	1,	130.05,	39.02,	0,	0,	0,	0,	0,	0,	0,	0,	0,	0,	0],
        [126,	39.02,	12.55,	60.6,	-15.87,	1.04,	156.06,	1,	130.05,	39.02,	0,	0,	0,	0,	0,	0,	0,	0,	0,	0,	0],
        [127,	39.02,	25.99,	60.6,	-15.87,	1.04,	156.06,	1,	130.05,	39.02,	0,	0,	0,	0,	0,	0,	0,	0,	0,	0,	0],
        [135,	133.92,	21.46,	208.02,	-54.46,	1.04,	535.68,	1,	446.4,	133.92,	0,	0,	0,	0,	0,	0,	0,	0,	0,	0,	0],
        [136,	133.92,	25.06,	208.02,	-54.46,	1.04,	535.68,	1,	446.4,	133.92,	0,	0,	0,	0,	0,	0,	0,	0,	0,	0,	0],
        [147,	92.4,	8.79,	21.41,	-14.47,	1.04,	120.6,	1,	92.4,	92.4,	0,	0,	0,	0,	0,	0,	0,	0,	0,	0,	0],
        [151,	1.62,	0.02,	2.52,	-0.66,	1.04,	6.48,	1,	5.4,	1.62,	0,	0,	0,	0,	0,	0,	0,	0,	0,	0,	0],
        [152,	23.17,	0.27,	35.99,	-9.42,	1.04,	92.67,	1,	77.22,	23.17,	0,	0,	0,	0,	0,	0,	0,	0,	0,	0,	0],
        [153,	23.17,	0.02,	35.99,	-9.42,	1.04,	92.67,	1,	77.22,	23.17,	0,	0,	0,	0,	0,	0,	0,	0,	0,	0,	0],
        [154,	23.17,	0.14,	35.99,	-9.42,	1.04,	92.67,	1,	77.22,	23.17,	0,	0,	0,	0,	0,	0,	0,	0,	0,	0,	0],
        [155,	23.17,	0.13,	35.99,	-9.42,	1.04,	92.67,	1,	77.22,	23.17,	0,	0,	0,	0,	0,	0,	0,	0,	0,	0,	0],
        [161,	0,	0,	70.55,	-15.38,	1.04,	166.32,	0,	138.6,	41.58,	0,	0,	0,	0,	0,	0,	0,	0,	0,	0,	0],
        [164,	0,	0,	6.11,	-1.33,	1.04,	14.4,	0,	12,	3.6,	0,	0,	0,	0,	0,	0,	0,	0,	0,	0,	0],
        [165,	0,	0,	13.23,	-2.89,	1.04,	31.2,	0,	26,	7.8,	0,	0,	0,	0,	0,	0,	0,	0,	0,	0,	0],
        [166,	0,	0,	4.78,	-1.04,	1.04,	11.28,	0,	9.4,	2.82,	0,	0,	0,	0,	0,	0,	0,	0,	0,	0,	0],
        [167,	2.82,	-1.04,	4.78,	-1.04,	1.04,	11.28,	1,	9.4,	2.82,	0,	0,	0,	0,	0,	0,	0,	0,	0,	0,	0],
        [168,	0,	0,	4.78,	-1.04,	1.04,	11.28,	0,	9.4,	2.82,	0,	0,	0,	0,	0,	0,	0,	0,	0,	0,	0],
        [169,	0,	0,	4.78,	-1.04,	1.04,	11.28,	0,	9.4,	2.82,	0,	0,	0,	0,	0,	0,	0,	0,	0,	0,	0],
        [170,	2.82,	-0.99,	4.78,	-1.04,	1.04,	11.28,	1,	9.4,	2.82,	0,	0,	0,	0,	0,	0,	0,	0,	0,	0,	0],
        [182,	5.25,	2.15,	8.16,	-2.14,	1.04,	21,	1,	17.5,	5.25,	0,	0,	0,	0,	0,	0,	0,	0,	0,	0,	0],
        [183,	7.98,	5.73,	12.4,	-3.25,	1.04,	31.92,	1,	26.6,	7.98,	0,	0,	0,	0,	0,	0,	0,	0,	0,	0,	0],
        [189,	384.37,	-24.15,	209.45,	-46.67,	1.04,	682.98,	1,	569.15,	170.75,	0,	0,	0,	0,	0,	0,	0,	0,	0,	0,	0],
        [196,	0,	0,	34.36,	-7.49,	1.04,	81,	0,	67.5,	20.25,	0,	0,	0,	0,	0,	0,	0,	0,	0,	0,	0],
        [197,	0,	0,	34.36,	-7.49,	1.04,	81,	0,	67.5,	20.25,	0,	0,	0,	0,	0,	0,	0,	0,	0,	0,	0]
    ])

    ## branch data
    # fbus, tbus, r, x, b, rateA, rateB, rateC, ratio, angle, status, angmin, angmax
    ppc["branch"] = array([
        [2,        1,        0,        0.003339,        0,        100,        0,        0,        0,        0,        1,        0,        0],
        [1,        119,        0,        0.119758,        0.02285,        221.1,        0,        0,        0,        0,        1,        0,        0],
        [124,        1,        0,        0.036268,        0.00692,        221.1,        0,        0,        0,        0,        1,        0,        0],
        [193,        1,        0,        0.027501,        0.00525,        221.1,        0,        0,        0,        0,        1,        0,        0],
        [4,        3,        0,        0.003303,        0,        100,        0,        0,        0,        0,        1,        0,        0],
        [57,        3,        0,        0.058098,        0.00988,        221.1,        0,        0,        0,        0,        1,        0,        0],
        [3,        137,        0,        0.038035,        0.00726,        221.1,        0,        0,        0,        0,        1,        0,        0],
        [6,        5,        0,        0.003337,        0,        100,        0,        0,        0,        0,        1,        0,        0],
        [48,        5,        0,        0.043513,        0.00711,        221.1,        0,        0,        0,        0,        1,        0,        0],
        [5,        64,        0,        0.054875,        0.00897,        221.1,        0,        0,        0,        0,        1,        0,        0],
        [8,        7,        0,        0.003189,        0,        100,        0,        0,        0,        0,        1,        0,        0],
        [7,        86,        0,        0.024259,        0.00463,        221.1,        0,        0,        0,        0,        1,        0,        0],
        [7,        101,        0,        0.023232,        0.00443,        221.1,        0,        0,        0,        0,        1,        0,        0],
        [7,        148,        0,        0.05598,        0.01068,        221.1,        0,        0,        0,        0,        1,        0,        0],
        [10,        9,        0,        0.003967,        0,        100,        0,        0,        0,        0,        1,        0,        0],
        [9,        124,        0,        0.055123,        0.00938,        221.1,        0,        0,        0,        0,        1,        0,        0],
        [131,        9,        0,        0.026732,        0.0051,        221.1,        0,        0,        0,        0,        1,        0,        0],
        [9,        141,        0,        0.03097,        0.00506,        221.1,        0,        0,        0,        0,        1,        0,        0],
        [9,        193,        0,        0.025244,        0.00429,        221.1,        0,        0,        0,        0,        1,        0,        0],
        [12,        11,        0,        0.003533,        0,        100,        0,        0,        0,        0,        1,        0,        0],
        [13,        11,        0,        0.003606,        0,        100,        0,        0,        0,        0,        1,        0,        0],
        [11,        15,        0,        0.06722,        0.01282,        221.1,        0,        0,        0,        0,        1,        0,        0],
        [11,        93,        0,        0.128141,        0.02095,        221.1,        0,        0,        0,        0,        1,        0,        0],
        [158,       11,        0,        0.058199,        0.0099,        221.1,        0,        0,        0,        0,        1,        0,        0],
        [15,        14,        0,        0.027526,        0,        300,        0,        0,        1,        0,        1,        0,        0],
        [14,        121,        0,        0.050098,        0.09134,        402.36,        0,        0,        0,        0,        1,        0,        0],
        [14,        149,        0,        0.065244,        0.11895,        402.36,        0,        0,        0,        0,        1,        0,        0],
        [16,        15,        0,        0.0032,        0,        100,        0,        0,        0,        0,        1,        0,        0],
        [18,        17,        0,        0.003926,        0,        100,        0,        0,        0,        0,        1,        0,        0],
        [19,        17,        0,        0.003079,        0,        100,        0,        0,        0,        0,        1,        0,        0],
        [20,        17,        0,        0.003339,        0,        100,        0,        0,        0,        0,        1,        0,        0],
        [21,        17,        0,        0.00394,        0,        100,        0,        0,        0,        0,        1,        0,        0],
        [109,        17,        0,        0.068198,        0.01115,        221.1,        0,        0,        0,        0,        1,        0,        0],
        [17,        120,        0,        0.070473,        0.01199,        221.1,        0,        0,        0,        0,        1,        0,        0],
        [23,        22,        0,        0.003222,        0,        100,        0,        0,        0,        0,        1,        0,        0],
        [24,        22,        0,        0.003067,        0,        100,        0,        0,        0,        0,        1,        0,        0],
        [22,        27,        0,        0.073494,        0.01402,        221.1,        0,        0,        0,        0,        1,        0,        0],
        [158,        22,        0,        0.086769,        0.01476,        221.1,        0,        0,        0,        0,        1,        0,        0],
        [26,        25,        0,        0.003071,        0,        100,        0,        0,        0,        0,        1,        0,        0],
        [25,        64,        0,        0.053244,        0.0087,        221.1,        0,        0,        0,        0,        1,        0,        0],
        [199,        25,        0,        0.064003,        0.01221,        221.1,        0,        0,        0,        0,        1,        0,        0],
        [28,        27,        0,        0.003964,        0,        100,        0,        0,        0,        0,        1,        0,        0],
        [27,        93,        0,        0.175362,        0.02867,        221.1,        0,        0,        0,        0,        1,        0,        0],
        [27,        158,        0,        0.131945,        0.02517,        221.1,        0,        0,        0,        0,        1,        0,        0],
        [30,        29,        0,        0.003131,        0,        100,        0,        0,        0,        0,        1,        0,        0],
        [124,        29,        0,        0.038742,        0.00633,        221.1,        0,        0,        0,        0,        1,        0,        0],
        [29,        140,        0,        0.055004,        0.00899,        221.1,        0,        0,        0,        0,        1,        0,        0],
        [32,        31,        0,        0.003884,        0,        100,        0,        0,        0,        0,        1,        0,        0],
        [33,        31,        0,        0.003639,        0,        100,        0,        0,        0,        0,        1,        0,        0],
        [177,        31,        0,        0.05856,        0.00957,        221.1,        0,        0,        0,        0,        1,        0,        0],
        [192,        31,        0,        0.05525,        0.0094,        221.1,        0,        0,        0,        0,        1,        0,        0],
        [35,        34,        0,        0.003674,        0,        100,        0,        0,        0,        0,        1,        0,        0],
        [34,        54,        0,        0.042819,        0.00729,        221.1,        0,        0,        0,        0,        1,        0,        0],
        [34,        137,        0,        0.044639,        0.00852,        221.1,        0,        0,        0,        0,        1,        0,        0],
        [37,        36,        0,        0.003328,        0,        100,        0,        0,        0,        0,        1,        0,        0],
        [38,        36,        0,        0.003511,        0,        100,        0,        0,        0,        0,        1,        0,        0],
        [58,        36,        0,        0.07439,        0.01266,        221.1,        0,        0,        0,        0,        1,        0,        0],
        [83,        36,        0,        0.066986,        0.01095,        221.1,        0,        0,        0,        0,        1,        0,        0],
        [40,        39,        0,        0.003103,        0,        100,        0,        0,        0,        0,        1,        0,        0],
        [39,        85,        0,        0.060625,        0.00991,        221.1,        0,        0,        0,        0,        1,        0,        0],
        [159,        39,        0,        0.05108,        0.00835,        221.1,        0,        0,        0,        0,        1,        0,        0],
        [41,        100,        0,        0.029676,        0.00566,        221.1,        0,        0,        0,        0,        1,        0,        0],
        [41,        163,        0,        0.021623,        0.00368,        221.1,        0,        0,        0,        0,        1,        0,        0],
        [41,        180,        0,        0.060766,        0.01159,        221.1,        0,        0,        0,        0,        1,        0,        0],
        [44,        42,        0,        0.085383,        0.01396,        221.1,        0,        0,        0,        0,        1,        0,        0],
        [181,        42,        0,        0.05579,        0.00912,        221.1,        0,        0,        0,        0,        1,        0,        0],
        [43,        84,        0,        0.051295,        0.00873,        221.1,        0,        0,        0,        0,        1,        0,        0],
        [43,        132,        0,        0.075503,        0.01285,        221.1,        0,        0,        0,        0,        1,        0,        0],
        [44,        200,        0,        0.101195,        0.01722,        221.1,        0,        0,        0,        0,        1,        0,        0],
        [46,        45,        0,        0.049195,        0,        160,        0,        0,        1,        0,        1,        0,        0],
        [55,        45,        0,        0.018527,        0.03378,        402.36,        0,        0,        0,        0,        1,        0,        0],
        [102,        45,        0,        0.020715,        0.03777,        402.36,        0,        0,        0,        0,        1,        0,        0],
        [45,        187,        0,        0.024821,        0.04525,        402.36,        0,        0,        0,        0,        1,        0,        0],
        [61,        46,        0,        0.048561,        0.00794,        221.1,        0,        0,        0,        0,        1,        0,        0],
        [122,        46,        0,        0.065419,        0.01248,        221.1,        0,        0,        0,        0,        1,        0,        0],
        [47,        54,        0,        0.045623,        0.00776,        221.1,        0,        0,        0,        0,        1,        0,        0],
        [47,        66,        0,        0.047401,        0.00904,        221.1,        0,        0,        0,        0,        1,        0,        0],
        [49,        48,        0,        0.532021,        0,        28.9,        0,        0,        1,        0,        1,        0,        0],
        [50,        48,        0,        0.404167,        0,        28.7,        0,        0,        1,        0,        1,        0,        0],
        [51,        48,        0,        0.612711,        0,        24.3,        0,        0,        1,        0,        1,        0,        0],
        [52,        48,        0,        0.379817,        0,        24.3,        0,        0,        1,        0,        1,        0,        0],
        [53,        48,        0,        0.576549,        0,        35.3,        0,        0,        1,        0,        1,        0,        0],
        [48,        74,        0,        0.054369,        0.00925,        221.1,        0,        0,        0,        0,        1,        0,        0],
        [54,        66,        0,        0.045544,        0.00869,        221.1,        0,        0,        0,        0,        1,        0,        0],
        [56,        55,        0,        0.124653,        0,        160,        0,        0,        1,        0,        1,        0,        0],
        [81,        55,        0,        0.039054,        0.0712,        402.36,        0,        0,        0,        0,        1,        0,        0],
        [55,        102,        0,        0.008902,        0.01623,        402.36,        0,        0,        0,        0,        1,        0,        0],
        [55,        112,        0,        0.029763,        0.05426,        402.36,        0,        0,        0,        0,        1,        0,        0],
        [55,        128,        0,        0.024395,        0.04448,        402.36,        0,        0,        0,        0,        1,        0,        0],
        [56,        103,        0,        0.02983,        0.00488,        221.1,        0,        0,        0,        0,        1,        0,        0],
        [57,        159,        0,        0.051369,        0.00874,        221.1,        0,        0,        0,        0,        1,        0,        0],
        [95,        58,        0,        0.063526,        0.01212,        221.1,        0,        0,        0,        0,        1,        0,        0],
        [177,        58,        0,        0.095972,        0.01633,        221.1,        0,        0,        0,        0,        1,        0,        0],
        [59,        119,        0,        0.072397,        0.01381,        221.1,        0,        0,        0,        0,        1,        0,        0],
        [59,        139,        0,        0.062426,        0.01191,        221.1,        0,        0,        0,        0,        1,        0,        0],
        [60,        97,        0,        0.079279,        0.01512,        221.1,        0,        0,        0,        0,        1,        0,        0],
        [134,        60,        0,        0.062749,        0.01026,        221.1,        0,        0,        0,        0,        1,        0,        0],
        [61,        103,        0,        0.045556,        0.00745,        221.1,        0,        0,        0,        0,        1,        0,        0],
        [159,        62,        0,        0.058979,        0.01003,        221.1,        0,        0,        0,        0,        1,        0,        0],
        [160,        62,        0,        0.053144,        0.00869,        221.1,        0,        0,        0,        0,        1,        0,        0],
        [63,        66,        0,        0.083244,        0.01361,        221.1,        0,        0,        0,        0,        1,        0,        0],
        [63,        184,        0,        0.116023,        0.02214,        221.1,        0,        0,        0,        0,        1,        0,        0],
        [65,        64,        0,        0.10157,        0,        195.5,        0,        0,        1,        0,        1,        0,        0],
        [67,        66,        0,        0.144786,        0,        30,        0,        0,        1,        0,        1,        0,        0],
        [68,        66,        0,        0.264997,        0,        73,        0,        0,        1,        0,        1,        0,        0],
        [69,        66,        0,        0.09499,        0,        70.5,        0,        0,        1,        0,        1,        0,        0],
        [70,        66,        0,        0.199449,        0,        70.5,        0,        0,        1,        0,        1,        0,        0],
        [71,        66,        0,        0.081544,        0,        68,        0,        0,        1,        0,        1,        0,        0],
        [72,        66,        0,        0.074599,        0,        68,        0,        0,        1,        0,        1,        0,        0],
        [73,        66,        0,        0.146423,        0,        65,        0,        0,        1,        0,        1,        0,        0],
        [66,        158,        0,        0.032251,        0.00615,        221.1,        0,        0,        0,        0,        1,        0,        0],
        [74,        190,        0,        0.06076,        0.01034,        221.1,        0,        0,        0,        0,        1,        0,        0],
        [76,        75,        0,        0.784328,        0,        24.3,        0,        0,        1,        0,        1,        0,        0],
        [77,        75,        0,        2.192105,        0,        7.4,        0,        0,        1,        0,        1,        0,        0],
        [78,        75,        0,        0.181406,        0,        65,        0,        0,        1,        0,        1,        0,        0],
        [79,        75,        0,        0.277774,        0,        62.1,        0,        0,        1,        0,        1,        0,        0],
        [108,        75,        0,        0.070969,        0.01354,        221.1,        0,        0,        0,        0,        1,        0,        0],
        [75,        157,        0,        0.087112,        0.01662,        221.1,        0,        0,        0,        0,        1,        0,        0],
        [80,        100,        0,        0.149525,        0.02444,        221.1,        0,        0,        0,        0,        1,        0,        0],
        [80,        143,        0,        0.14347,        0.02345,        221.1,        0,        0,        0,        0,        1,        0,        0],
        [82,        81,        0,        0.042371,        0,        250,        0,        0,        1,        0,        1,        0,        0],
        [81,        178,        0,        0.047137,        0.08594,        402.36,        0,        0,        0,        0,        1,        0,        0],
        [82,        195,        0,        0.026265,        0.00447,        221.1,        0,        0,        0,        0,        1,        0,        0],
        [83,        146,        0,        0.036767,        0.00626,        221.1,        0,        0,        0,        0,        1,        0,        0],
        [83,        186,        0,        0.055174,        0.00902,        221.1,        0,        0,        0,        0,        1,        0,        0],
        [84,        113,        0,        0.04544,        0.00773,        221.1,        0,        0,        0,        0,        1,        0,        0],
        [85,        120,        0,        0.050291,        0.00959,        221.1,        0,        0,        0,        0,        1,        0,        0],
        [86,        101,        0,        0.033072,        0.00631,        221.1,        0,        0,        0,        0,        1,        0,        0],
        [142,        86,        0,        0.023141,        0.00394,        221.1,        0,        0,        0,        0,        1,        0,        0],
        [86,        193,        0,        0.042664,        0.00814,        221.1,        0,        0,        0,        0,        1,        0,        0],
        [88,        87,        0,        0.034189,        0,        350,        0,        0,        1,        0,        1,        0,        0],
        [149,        87,        0,        0.011579,        0.02111,        402.36,        0,        0,        0,        0,        1,        0,        0],
        [88,        150,        0,        0.035973,        0.00686,        221.1,        0,        0,        0,        0,        1,        0,        0],
        [176,        88,        0,        0.024922,        0.00475,        221.1,        0,        0,        0,        0,        1,        0,        0],
        [88,        194,        0,        0.029088,        0.00495,        221.1,        0,        0,        0,        0,        1,        0,        0],
        [90,        89,        0,        2.279922,        0,        8.6,        0,        0,        1,        0,        1,        0,        0],
        [91,        89,        0,        0.503424,        0,        32,        0,        0,        1,        0,        1,        0,        0],
        [92,        89,        0,        0.36204,        0,        35.3,        0,        0,        1,        0,        1,        0,        0],
        [89,        95,        0,        0.056409,        0.01076,        221.1,        0,        0,        0,        0,        1,        0,        0],
        [188,        89,        0,        0.051996,        0.00992,        221.1,        0,        0,        0,        0,        1,        0,        0],
        [94,        93,        0,        0.280602,        0,        62.1,        0,        0,        1,        0,        1,        0,        0],
        [93,        191,        0,        0.142662,        0.02722,        221.1,        0,        0,        0,        0,        1,        0,        0],
        [122,        96,        0,        0.073986,        0.01209,        221.1,        0,        0,        0,        0,        1,        0,        0],
        [96,        143,        0,        0.102423,        0.01954,        221.1,        0,        0,        0,        0,        1,        0,        0],
        [96,        188,        0,        0.070421,        0.01343,        221.1,        0,        0,        0,        0,        1,        0,        0],
        [97,        200,        0,        0.085125,        0.01624,        221.1,        0,        0,        0,        0,        1,        0,        0],
        [99,        98,        0,        0.030516,        0,        250,        0,        0,        1,        0,        1,        0,        0],
        [98,        123,        0,        0.033574,        0.06121,        402.36,        0,        0,        0,        0,        1,        0,        0],
        [99,        142,        0,        0.052982,        0.00866,        221.1,        0,        0,        0,        0,        1,        0,        0],
        [100,        174,        0,        0.074531,        0.01218,        221.1,        0,        0,        0,        0,        1,        0,        0],
        [100,        179,        0,        0.049413,        0.00808,        221.1,        0,        0,        0,        0,        1,        0,        0],
        [100,        184,        0,        0.08879,        0.01451,        221.1,        0,        0,        0,        0,        1,        0,        0],
        [110,        101,        0,        0.012657,        0.00241,        221.1,        0,        0,        0,        0,        1,        0,        0],
        [101,        117,        0,        0.035833,        0.0061,        221.1,        0,        0,        0,        0,        1,        0,        0],
        [101,        141,        0,        0.020305,        0.00387,        221.1,        0,        0,        0,        0,        1,        0,        0],
        [103,        102,        0,        0.054578,        0,        250,        0,        0,        1,        0,        1,        0,        0],
        [104,        102,        0,        0.087749,        0,        130,        0,        0,        1,        0,        1,        0,        0],
        [105,        102,        0,        0.059419,        0,        260,        0,        0,        1,        0,        1,        0,        0],
        [102,        128,        0,        0.019292,        0.03517,        402.36,        0,        0,        0,        0,        1,        0,        0],
        [103,        106,        0,        0.053987,        0.00883,        221.1,        0,        0,        0,        0,        1,        0,        0],
        [130,        106,        0,        0.047761,        0.00813,        221.1,        0,        0,        0,        0,        1,        0,        0],
        [107,        113,        0,        0.046101,        0.00784,        221.1,        0,        0,        0,        0,        1,        0,        0],
        [107,        129,        0,        0.035307,        0.00601,        221.1,        0,        0,        0,        0,        1,        0,        0],
        [192,        107,        0,        0.025441,        0.00485,        221.1,        0,        0,        0,        0,        1,        0,        0],
        [108,        198,        0,        0.160126,        0.03055,        221.1,        0,        0,        0,        0,        1,        0,        0],
        [186,        109,        0,        0.059942,        0.0102,        221.1,        0,        0,        0,        0,        1,        0,        0],
        [110,        193,        0,        0.022243,        0.00424,        221.1,        0,        0,        0,        0,        1,        0,        0],
        [163,        111,        0,        0.034111,        0.00651,        221.1,        0,        0,        0,        0,        1,        0,        0],
        [111,        175,        0,        0.055386,        0.00905,        221.1,        0,        0,        0,        0,        1,        0,        0],
        [113,        112,        0,        0.058615,        0,        350,        0,        0,        1,        0,        1,        0,        0],
        [114,        112,        0,        0.434013,        0,        20,        0,        0,        1,        0,        1,        0,        0],
        [115,        112,        0,        0.062771,        0,        200,        0,        0,        1,        0,        1,        0,        0],
        [128,        112,        0,        0.009255,        0.01687,        402.36,        0,        0,        0,        0,        1,        0,        0],
        [113,        192,        0,        0.034995,        0.00668,        221.1,        0,        0,        0,        0,        1,        0,        0],
        [117,        116,        0,        0.034943,        0,        300,        0,        0,        1,        0,        1,        0,        0],
        [133,        116,        0,        0.027793,        0.05067,        402.36,        0,        0,        0,        0,        1,        0,        0],
        [117,        132,        0,        0.082984,        0.01357,        221.1,        0,        0,        0,        0,        1,        0,        0],
        [117,        162,        0,        0.104442,        0.01993,        221.1,        0,        0,        0,        0,        1,        0,        0],
        [131,        118,        0,        0.046377,        0.00885,        221.1,        0,        0,        0,        0,        1,        0,        0],
        [118,        134,        0,        0.0808,        0.01321,        221.1,        0,        0,        0,        0,        1,        0,        0],
        [118,        198,        0,        0.064809,        0.01103,        221.1,        0,        0,        0,        0,        1,        0,        0],
        [122,        121,        0,        0.063023,        0,        200,        0,        0,        1,        0,        1,        0,        0],
        [121,        178,        0,        0.063604,        0.11596,        402.36,        0,        0,        0,        0,        1,        0,        0],
        [187,        121,        0,        0.007593,        0.01384,        402.36,        0,        0,        0,        0,        1,        0,        0],
        [124,        123,        0,        0.017481,        0,        400,        0,        0,        1,        0,        1,        0,        0],
        [125,        123,        0,        0.104562,        0,        170,        0,        0,        1,        0,        1,        0,        0],
        [126,        123,        0,        0.066043,        0,        170,        0,        0,        1,        0,        1,        0,        0],
        [127,        123,        0,        0.031691,        0,        170,        0,        0,        1,        0,        1,        0,        0],
        [123,        133,        0,        0.010423,        0.019,        402.36,        0,        0,        0,        0,        1,        0,        0],
        [156,        123,        0,        0.007981,        0.01455,        402.36,        0,        0,        0,        0,        1,        0,        0],
        [124,        193,        0,        0.04582,        0.00749,        221.1,        0,        0,        0,        0,        1,        0,        0],
        [129,        128,        0,        0.044453,        0,        250,        0,        0,        1,        0,        1,        0,        0],
        [128,        133,        0,        0.068257,        0.12444,        402.36,        0,        0,        0,        0,        1,        0,        0],
        [130,        144,        0,        0.157988,        0.02583,        221.1,        0,        0,        0,        0,        1,        0,        0],
        [134,        133,        0,        0.013328,        0,        400,        0,        0,        1,        0,        1,        0,        0],
        [135,        133,        0,        0.033512,        0,        580,        0,        0,        1,        0,        1,        0,        0],
        [136,        133,        0,        0.027478,        0,        580,        0,        0,        1,        0,        1,        0,        0],
        [156,        133,        0,        0.013985,        0.0255,        402.36,        0,        0,        0,        0,        1,        0,        0],
        [134,        140,        0,        0.071357,        0.01214,        221.1,        0,        0,        0,        0,        1,        0,        0],
        [134,        186,        0,        0.093412,        0.01782,        221.1,        0,        0,        0,        0,        1,        0,        0],
...
    ])

    ppc["gencontrol"] = array([
            [ 49         , 3          , 0.001442   , 0.001442   , 0.00721    , 0.00721    , -0.1359    , 0.1359     ],
            [ 50         , 3          , 2.9e-05    , 2.9e-05    , 0.000144   , 0.014419   , -0.1359    , 0.1359     ],
            [ 51         , 3          , 0.001442   , 0.001442   , 0.000144   , 0.014419   , -0.1359    , 0.1359     ],
            [ 52         , 3          , 2.9e-05    , 0.002884   , 0.00721    , 0.00721    , -0.1359    , 0.1359     ],
            [ 53         , 3          , 5.8e-05    , 0.005774   , 0.000289   , 0.028871   , -0.2721    , 0.2721     ],
            [ 65         , 3          , 0.027534   , 0.027534   , 0.137669   , 0.137669   , -2.595     , 2.595      ],
            [ 67         , 3          , 3e-05      , 3e-05      , 0.00015    , 0.014961   , -0.141     , 0.141      ],
            [ 68         , 3          , 0.008887   , 0.008887   , 0.000889   , 0.088872   , -0.8376    , 0.8376     ],
            [ 69         , 3          , 0.000178   , 0.017774   , 0.044436   , 0.044436   , -0.8376    , 0.8376     ],
            [ 70         , 3          , 0.000178   , 0.017774   , 0.000889   , 0.088872   , -0.8376    , 0.8376     ],
            [ 71         , 3          , 0.008887   , 0.008887   , 0.044436   , 0.044436   , -0.8376    , 0.8376     ],
            [ 72         , 3          , 0.000178   , 0.000178   , 0.000889   , 0.088872   , -0.8376    , 0.8376     ],
            [ 73         , 3          , 0.008887   , 0.008887   , 0.000889   , 0.088872   , -0.8376    , 0.8376     ],
            [ 76         , 3          , 2.5e-05    , 0.002546   , 0.006366   , 0.006366   , -0.12      , 0.12       ],
            [ 77         , 3          , 1.5e-05    , 0.001528   , 7.6e-05    , 0.007639   , -0.072     , 0.072      ],
            [ 78         , 3          , 0.00573    , 0.00573    , 0.028648   , 0.028648   , -0.54      , 0.54       ],
            [ 79         , 3          , 0.000115   , 0.000115   , 0.000573   , 0.057296   , -0.54      , 0.54       ],
            [ 90         , 3          , 0.001019   , 0.001019   , 0.000102   , 0.010186   , -0.096     , 0.096      ],
            [ 91         , 3          , 3.2e-05    , 0.003183   , 0.007957   , 0.007957   , -0.15      , 0.15       ],
            [ 92         , 3          , 4e-05      , 0.004011   , 0.000201   , 0.020054   , -0.189     , 0.189      ],
            [ 94         , 3          , 0.00573    , 0.00573    , 0.028648   , 0.028648   , -0.54      , 0.54       ],
            [ 104        , 3          , 0.00043    , 0.00043    , 0.002152   , 0.215177   , -2.028     , 2.028      ],
            [ 105        , 3          , 0.049274   , 0.049274   , 0.004927   , 0.492744   , -4.644     , 4.644      ],
            [ 114        , 3          , 9e-06      , 0.000891   , 0.002228   , 0.002228   , -0.042     , 0.042      ],
            [ 115        , 3          , 0.00085    , 0.084989   , 0.004249   , 0.424944   , -4.005     , 4.005      ],
            [ 125        , 3          , 0.041396   , 0.041396   , 0.206981   , 0.206981   , -3.9015    , 3.9015     ],
            [ 126        , 3          , 0.000828   , 0.000828   , 0.00414    , 0.413962   , -3.9015    , 3.9015     ],
            [ 127        , 3          , 0.041396   , 0.041396   , 0.00414    , 0.413962   , -3.9015    , 3.9015     ],
            [ 135        , 3          , 0.002842   , 0.284187   , 0.710468   , 0.710468   , -13.392    , 13.392     ],
            [ 136        , 3          , 0.002842   , 0.284187   , 0.014209   , 1.420935   , -13.392    , 13.392     ],
            [ 147        , 3          , 0.029412   , 0.029412   , 0.147059   , 0.147059   , -2.772     , 2.772      ],
            [ 151        , 3          , 3.4e-05    , 3.4e-05    , 0.000172   , 0.017189   , -0.162     , 0.162      ],
            [ 152        , 3          , 0.02458    , 0.02458    , 0.002458   , 0.245799   , -2.3166    , 2.3166     ],
            [ 153        , 3          , 0.000492   , 0.04916    , 0.1229     , 0.1229     , -2.3166    , 2.3166     ],
            [ 154        , 3          , 0.000492   , 0.04916    , 0.002458   , 0.245799   , -2.3166    , 2.3166     ],
            [ 155        , 3          , 0.02458    , 0.02458    , 0.1229     , 0.1229     , -2.3166    , 2.3166     ],
            [ 161        , 3          , 0.000882   , 0.000882   , 0.004412   , 0.441178   , -4.158     , 4.158      ],
            [ 164        , 3          , 0.00382    , 0.00382    , 0.000382   , 0.038197   , -0.36      , 0.36       ],
            [ 165        , 3          , 0.000166   , 0.016552   , 0.04138    , 0.04138    , -0.78      , 0.78       ],
            [ 166        , 3          , 6e-05      , 0.005984   , 0.000299   , 0.029921   , -0.282     , 0.282      ],
            [ 167        , 3          , 0.002992   , 0.002992   , 0.01496    , 0.01496    , -0.282     , 0.282      ],
            [ 168        , 3          , 6e-05      , 6e-05      , 0.000299   , 0.029921   , -0.282     , 0.282      ],
            [ 169        , 3          , 0.002992   , 0.002992   , 0.000299   , 0.029921   , -0.282     , 0.282      ],
            [ 170        , 3          , 6e-05      , 0.005984   , 0.01496    , 0.01496    , -0.282     , 0.282      ],
            [ 182        , 3          , 0.000111   , 0.011141   , 0.000557   , 0.055704   , -0.525     , 0.525      ],
            [ 183        , 3          , 0.008467   , 0.008467   , 0.042335   , 0.042335   , -0.798     , 0.798      ],
...